Version 4
SHEET 1 3492 680
WIRE 1344 -304 1232 -304
WIRE 1408 -304 1344 -304
WIRE 1472 -304 1408 -304
WIRE 1536 -304 1472 -304
WIRE 1600 -304 1536 -304
WIRE 1664 -304 1600 -304
WIRE 1696 -304 1664 -304
WIRE 1888 -304 1696 -304
WIRE 1232 -288 1232 -304
WIRE 1344 -288 1344 -304
WIRE 1408 -288 1408 -304
WIRE 1472 -288 1472 -304
WIRE 1536 -288 1536 -304
WIRE 1600 -288 1600 -304
WIRE 2768 -288 2496 -288
WIRE 3040 -288 2848 -288
WIRE 3184 -288 3040 -288
WIRE 1696 -256 1696 -304
WIRE 2496 -224 2496 -288
WIRE 2624 -224 2496 -224
WIRE 2704 -224 2688 -224
WIRE 1344 -208 1344 -224
WIRE 1408 -208 1408 -224
WIRE 1408 -208 1344 -208
WIRE 1472 -208 1472 -224
WIRE 1472 -208 1408 -208
WIRE 1536 -208 1536 -224
WIRE 1536 -208 1472 -208
WIRE 1600 -208 1600 -224
WIRE 1600 -208 1536 -208
WIRE 3088 -192 3088 -224
WIRE 1232 -176 1232 -208
WIRE 2576 -176 2576 -208
WIRE 1600 -160 1600 -208
WIRE 3088 -160 3088 -192
WIRE 1696 -144 1696 -176
WIRE 1696 -144 1680 -144
WIRE 2128 -144 2064 -144
WIRE 2576 -144 2576 -176
WIRE 3040 -144 3040 -288
WIRE 3056 -144 3040 -144
WIRE 2064 -128 2064 -144
WIRE 2064 -128 2048 -128
WIRE 2128 -128 2128 -144
WIRE 2496 -128 2496 -224
WIRE 2544 -128 2496 -128
WIRE 3184 -128 3184 -288
WIRE 3184 -128 3120 -128
WIRE 3440 -128 3184 -128
WIRE 3488 -128 3440 -128
WIRE 1680 -112 1680 -144
WIRE 1696 -112 1696 -144
WIRE 1920 -112 1696 -112
WIRE 2704 -112 2704 -224
WIRE 2704 -112 2608 -112
WIRE 2768 -112 2704 -112
WIRE 2896 -112 2832 -112
WIRE 2992 -112 2896 -112
WIRE 3056 -112 2992 -112
WIRE 1696 -96 1696 -112
WIRE 2256 -96 2048 -96
WIRE 2416 -96 2256 -96
WIRE 2544 -96 2496 -96
WIRE 1920 -80 1824 -80
WIRE 2896 -80 2896 -112
WIRE 2992 -80 2992 -112
WIRE 2208 -64 2048 -64
WIRE 2336 -64 2208 -64
WIRE 3088 -64 3088 -96
WIRE 2576 -48 2576 -80
WIRE 2208 -32 2208 -64
WIRE 1696 0 1696 -16
WIRE 1824 0 1824 -80
WIRE 1824 0 1696 0
WIRE 2896 0 2896 -16
WIRE 1696 16 1696 0
WIRE 2800 16 2800 0
WIRE 2800 32 2800 16
WIRE 2800 32 2704 32
WIRE 2208 48 2208 32
WIRE 2336 48 2336 16
WIRE 2336 48 2208 48
WIRE 2704 48 2704 32
WIRE 2800 48 2800 32
WIRE 2336 80 2336 48
WIRE 1696 112 1696 96
WIRE 2896 112 2896 80
WIRE 2960 112 2896 112
WIRE 2992 112 2992 0
WIRE 2992 112 2960 112
WIRE 2704 144 2704 112
WIRE 2800 144 2800 128
WIRE 2800 144 2704 144
WIRE 2960 144 2960 112
WIRE 2800 160 2800 144
WIRE 1696 256 1696 192
WIRE 1040 304 992 304
WIRE 1408 304 1344 304
WIRE 1552 304 1488 304
WIRE 1872 304 1872 256
WIRE 992 336 992 304
WIRE 1344 336 1344 304
WIRE 1344 336 1312 336
WIRE 1552 336 1552 304
WIRE 1600 336 1552 336
WIRE 1040 352 1040 304
WIRE 1104 352 1040 352
WIRE 1408 368 1312 368
WIRE 1552 368 1552 336
WIRE 1552 368 1488 368
WIRE 1104 384 896 384
WIRE 1392 400 1312 400
WIRE 1872 400 1872 368
WIRE 1104 416 1040 416
WIRE 1328 432 1312 432
WIRE 1696 448 1696 416
WIRE 1040 464 1040 416
WIRE 1040 464 896 464
WIRE 1040 480 1040 464
WIRE 1392 480 1392 400
WIRE 1328 528 1328 432
WIRE 1392 528 1392 480
WIRE 1696 576 1696 528
WIRE 1328 624 1328 592
FLAG 1600 -160 0
FLAG 1696 576 0
FLAG 1232 -176 0
FLAG 2336 80 0
FLAG 2256 -96 Vsense2
FLAG 2128 -128 0
FLAG 3088 -64 0
FLAG 2576 -48 0
FLAG 2800 160 0
FLAG 2800 16 VDD
FLAG 2576 -176 VDD
FLAG 3088 -192 VDD
FLAG 3440 -128 Vpeak
FLAG 2960 144 0
FLAG 1392 480 VDD
FLAG 1040 480 0
FLAG 992 336 0
FLAG 1328 624 0
FLAG 1664 -304 Vcap
FLAG 1872 400 0
SYMBOL GAN7R0-150LBE 1680 336 R0
SYMATTR InstName U2
SYMBOL cap 1584 -288 R0
SYMATTR InstName C10
SYMATTR Value 47µ
SYMBOL cap 1520 -288 R0
SYMATTR InstName C11
SYMATTR Value 47µ
SYMBOL cap 1456 -288 R0
SYMATTR InstName C12
SYMATTR Value 47µ
SYMBOL cap 1392 -288 R0
SYMATTR InstName C13
SYMATTR Value 47µ
SYMBOL res 1680 96 R0
SYMATTR InstName Rload1
SYMATTR Value 1
SYMBOL voltage 1232 -304 R0
WINDOW 123 0 0 Left 0
WINDOW 39 0 0 Left 0
SYMATTR InstName V5
SYMATTR Value 12
SYMBOL ind 1680 -272 R0
SYMATTR InstName L2
SYMATTR Value 1p
SYMBOL cap 1328 -288 R0
SYMATTR InstName C15
SYMATTR Value 47µ
SYMBOL voltage 2336 -80 R0
SYMATTR InstName V6
SYMATTR Value 3.3
SYMBOL cap 2192 -32 R0
SYMATTR InstName C18
SYMATTR Value 100n
SYMBOL res 1680 -112 R0
SYMATTR InstName R1
SYMATTR Value 10m
SYMBOL AutoGenerated\\MAX4376T 1984 -96 R0
SYMATTR InstName U4
SYMBOL OpAmps\\LTC6244 2576 -112 R0
SYMATTR InstName U5
SYMBOL OpAmps\\LTC6244 3088 -128 R0
SYMATTR InstName U6
SYMBOL res 2512 -112 R90
WINDOW 0 0 56 VBottom 2
WINDOW 3 32 56 VTop 2
SYMATTR InstName R4
SYMATTR Value 1k
SYMBOL schottky 2624 -208 R270
WINDOW 0 32 32 VTop 2
WINDOW 3 0 32 VBottom 2
SYMATTR InstName D1
SYMATTR Value BAT17
SYMBOL schottky 2768 -96 R270
WINDOW 0 32 32 VTop 2
WINDOW 3 0 32 VBottom 2
SYMATTR InstName D2
SYMATTR Value BAT17
SYMBOL res 2864 -304 R90
WINDOW 0 0 56 VBottom 2
WINDOW 3 32 56 VTop 2
SYMATTR InstName R5
SYMATTR Value 2.2k
SYMBOL voltage 2800 32 R0
SYMATTR InstName V7
SYMATTR Value 5V
SYMBOL res 2976 -96 R0
SYMATTR InstName R8
SYMATTR Value 1Meg
SYMBOL cap 2880 -80 R0
SYMATTR InstName C7
SYMATTR Value 10n
SYMBOL res 2880 -16 R0
SYMATTR InstName R7
SYMATTR Value 22
SYMBOL cap 2688 48 R0
SYMATTR InstName C17
SYMATTR Value 1µ
SYMBOL AutoGenerated\\UCC27611_TRANS 1200 384 R0
SYMATTR InstName U7
SYMBOL res 1504 288 R90
WINDOW 0 0 56 VBottom 2
WINDOW 3 32 56 VTop 2
SYMATTR InstName R2
SYMATTR Value 8
SYMBOL res 1504 352 R90
WINDOW 0 -2 99 VBottom 2
WINDOW 3 32 56 VTop 2
SYMATTR InstName R9
SYMATTR Value 2
SYMBOL voltage 896 368 R0
WINDOW 0 -10 -2 Left 2
WINDOW 3 -145 157 Left 2
WINDOW 123 0 0 Left 0
WINDOW 39 0 0 Left 0
SYMATTR InstName V4
SYMATTR Value PULSE(0 3.3 0.5u 1n 3n 1u 1m)
SYMBOL cap 1312 528 R0
SYMATTR InstName C19
SYMATTR Value 100n
SYMBOL TVSdiode 1856 304 R0
SYMATTR InstName D3
SYMATTR Value SMBJ24CA
SYMBOL ind 1680 0 R0
SYMATTR InstName L3
SYMATTR Value 1p
SYMBOL ind 1680 432 R0
SYMATTR InstName L4
SYMATTR Value 5n
TEXT 2464 168 Left 2 !.SUBCKT BAT17 1 2\nR1 1 2 6E+07\nD1 1 2 BAT17\n*\n.MODEL BAT17 D \n+ IS = 1.419E-09 \n+ N = 1.022 \n+ BV = 6 \n+ IBV = 2.45E-06 \n+ RS = 5.112 \n+ CJO = 7.867E-13 \n+ VJ = 0.1043 \n+ M = 0.1439 \n+ FC = 0.5 \n+ TT = 0 \n+ EG = 0.69 \n+ XTI = 2 \n.ENDS
TEXT 714 664 Left 2 !.tran 4u
